grid_simulations/tests/Result_no_control/output_current_peak.csv
# Result_no_control/output_current_peak.csv run at 2000-01-01 18:03:00 EST on 907 links
link_name,currA_mag,currA_angle,currB_mag,currB_angle,currC_mag,currC_angle
Source_Impedance,35.736057,-0.367188,28.135609,3.744214,30.522045,1.910644
TR1,35.736057,-0.367188,28.135609,3.744214,30.522045,1.910644
LINE1,987.332271,-0.830353,873.024090,3.304112,622.174628,1.243377
LINE2,987.332271,-0.830353,873.024090,3.304112,622.174628,1.243377
LINE3,987.332271,-0.830353,873.024090,3.304112,622.174628,1.243377
LINE4,987.332271,-0.830353,873.024090,3.304112,622.174628,1.243377
LINE5,987.332271,-0.830353,873.024090,3.304112,622.174628,1.243377
LINE6,987.332271,-0.830353,873.024090,3.304112,622.174628,1.243377
LINE7,987.332271,-0.830353,873.024090,3.304112,622.174628,1.243377
LINE8,987.332271,-0.830353,873.024090,3.304112,622.174628,1.243377
LINE9,987.332271,-0.830353,873.024090,3.304112,622.174628,1.243377
LINE10,987.332271,-0.830353,873.024090,3.304112,622.174628,1.243377
LINE11,987.332271,-0.830353,873.024090,3.304112,622.174628,1.243377
LINE12,987.332271,-0.830353,873.024090,3.304112,622.174628,1.243377
LINE13,987.332271,-0.830353,873.024090,3.304112,622.174628,1.243377
LINE14,987.332271,-0.830353,873.024090,3.304112,622.174628,1.243377
LINE15,0.000000,-0.727189,0.000000,3.438411,0.000000,1.560068
LINE16,987.332271,-0.830353,873.024090,3.304112,622.174628,1.243377
LINE17,0.000000,-0.757747,0.000000,3.281809,0.000000,1.569298
LINE18,987.332271,-0.830353,873.024090,3.304112,622.174628,1.243377
LINE19,0.000000,-0.544078,0.000000,3.314056,0.000000,1.563720
LINE20,987.332271,-0.830353,873.024090,3.304112,622.174628,1.243377
LINE21,0.000000,-0.635658,0.000000,2.919265,0.000000,1.577104
LINE22,987.332271,-0.830353,873.024090,3.304112,622.174628,1.243377
LINE23,0.000000,-0.596269,0.000000,3.026001,0.000000,1.584907
LINE24,987.332271,-0.830353,873.024090,3.304112,622.174628,1.243377
LINE25,0.000000,-0.532030,0.000000,3.155103,0.000000,1.573635
LINE26,80.487165,-0.870107,0.000000,3.476608,0.000000,1.493610
LINE27,906.914341,-0.826825,873.024090,3.304112,622.174628,1.243377
LINE28,0.000000,-0.395823,0.000000,3.155103,0.000000,1.566695
LINE29,40.238136,-0.870141,0.000000,4.016939,0.000000,2.248711
LINE30,40.249029,-0.870074,0.000000,3.482852,0.000000,1.492552
LINE31,906.914341,-0.826825,873.024090,3.304112,622.174628,1.243377
LINE32,0.000000,-0.358176,0.000000,3.229088,0.000000,1.560569
LINE33,40.238136,-0.870141,0.000000,0.119634,0.000000,4.662206
LINE34,40.249029,-0.870074,0.000000,3.341089,0.000000,1.555715
LINE35,0.000000,-0.025837,82.082264,3.311079,0.000000,-0.343540
LINE36,906.914341,-0.826825,790.944025,3.303388,622.174628,1.243377
LINE37,0.000000,-0.308726,0.000000,3.208990,0.000000,1.563720
LINE38,40.249029,-0.870074,0.000000,3.471309,0.000000,1.612020
LINE39,0.000000,0.060048,41.042338,3.311087,0.000000,-1.032135
LINE40,0.000000,0.024324,41.039925,3.311072,0.000000,4.697854
LINE41,906.914341,-0.826825,790.944025,3.303388,622.174628,1.243377
LINE42,0.000000,0.906279,0.000000,0.297279,0.000000,3.968304
LINE43,0.000000,-0.383703,0.000000,3.116661,0.000000,1.577104
LINE44,40.249029,-0.870074,0.000000,3.354152,0.000000,2.358384
LINE45,0.000000,0.262716,41.042338,3.311087,0.000000,1.439141
LINE46,0.000000,2.991359,41.039925,3.311072,0.000000,2.601195
LINE47,906.914341,-0.826825,790.944025,3.303388,622.174628,1.243377
LINE48,0.000000,0.985328,0.000000,0.422254,0.000000,4.184308
LINE49,0.000000,-0.405438,0.000000,2.838361,0.000000,1.561488
LINE50,40.249029,-0.870074,0.000000,3.457963,0.000000,2.925930
LINE51,0.000000,0.653389,41.042338,3.311087,0.000000,-1.538835
LINE52,906.914341,-0.826825,790.944025,3.303388,622.174628,1.243377
LINE53,0.000000,4.595156,0.000000,-1.260828,0.000000,1.163310
LINE54,0.000000,1.651931,0.000000,0.483270,0.000000,4.116737
LINE55,0.000000,-0.413251,0.000000,2.767890,0.000000,1.514625
LINE56,40.249029,-0.870074,0.000000,3.079398,0.000000,4.349164
LINE57,0.000000,0.537214,41.042338,3.311087,0.000000,1.587536
LINE58,906.914341,-0.826825,790.944025,3.303388,622.174628,1.243377
LINE59,0.000000,4.684701,0.000000,-0.908614,0.000000,0.740591
LINE60,0.000000,1.974860,0.000000,0.836138,0.000000,3.613279
LINE61,0.000000,-0.488580,0.000000,2.919265,0.000000,1.499024
LINE62,40.249029,-0.870074,0.000000,0.386935,0.000000,4.626672
LINE63,0.000000,3.590803,41.042338,3.311087,0.000000,4.698339
LINE64,820.888734,-0.824064,790.944025,3.303388,622.174628,1.243377
LINE65,86.058597,-0.853169,0.000000,2.914075,0.000000,-1.479447
LINE66,0.000000,4.512075,0.000000,-0.695787,0.000000,-1.121102
LINE67,0.000000,-0.181054,0.000000,1.560325,0.000000,2.444934
LINE68,0.000000,-0.544078,0.000000,2.897992,0.000000,-0.024932
LINE69,40.249029,-0.870074,0.000000,-0.849099,0.000000,-1.466125
LINE70,0.000000,4.425773,41.042338,3.311087,0.000000,1.428301
LINE71,820.888734,-0.824064,790.944025,3.303388,622.174628,1.243377
LINE72,43.029298,-0.853169,0.000000,2.773407,0.000000,1.433276
LINE73,43.029298,-0.853169,0.000000,2.773368,0.000000,1.458876
LINE74,0.000000,4.651258,0.000000,-0.691910,0.000000,0.107638
LINE75,0.000000,0.096239,0.000000,0.490173,0.000000,2.897788
LINE76,0.000000,-0.520484,0.000000,2.911265,0.000000,-1.450916
LINE77,0.000000,3.112961,41.042338,3.311087,0.000000,1.205339
LINE78,820.888734,-0.824064,790.944025,3.303388,622.174628,1.243377
LINE79,0.000000,-1.400783,0.000000,-0.369067,0.000000,-0.582295
LINE80,0.000000,0.153585,0.000000,0.420099,0.000000,3.304642
LINE81,0.000000,-0.504451,0.000000,2.913002,0.000000,-1.471373
LINE82,0.000000,0.666415,41.042338,3.311087,0.000000,1.381117
LINE83,820.888734,-0.824064,790.944025,3.303388,622.174628,1.243377
LINE84,0.000000,4.401080,0.000000,-0.101624,0.000000,4.364657
LINE85,0.000000,0.042217,0.000000,0.384925,0.000000,3.508801
LINE86,0.000000,-0.501001,0.000000,2.962716,0.000000,-1.476505
LINE87,820.888734,-0.824064,790.944025,3.303388,622.174628,1.243377
LINE88,0.000000,4.033626,0.000000,0.001876,0.000000,2.554678
LINE89,0.000000,0.104432,0.000000,0.441610,0.000000,3.333688
LINE90,0.000000,-0.601307,0.000000,2.951512,0.000000,-1.321561
LINE91,820.888734,-0.824064,790.944025,3.303388,622.174628,1.243377
LINE92,0.000000,-0.259759,0.000000,0.978606,0.000000,2.728511
LINE93,0.000000,-0.668433,0.000000,2.794910,0.000000,-0.024932
LINE94,820.888734,-0.824064,790.944025,3.303388,622.174628,1.243377
LINE95,0.000000,-0.714513,0.000000,0.148601,0.000000,2.700153
LINE96,0.000000,3.116661,0.000000,1.545864,0.000000,0.000000
LINE97,820.888734,-0.824064,790.944025,3.303388,622.174628,1.243377
LINE98,0.000000,1.777631,0.000000,1.777631,0.000000,4.216124
LINE99,0.000000,0.438716,0.000000,2.653013,0.000000,3.116661
LINE100,820.888734,-0.824064,790.944025,3.303388,622.174628,1.243377
LINE101,0.000000,2.993254,0.000000,1.723792,0.000000,2.018647
LINE102,0.000000,0.000000,0.000000,0.000000,0.000000,0.000000
LINE103,44.053417,-0.847272,131.154556,3.311577,81.407989,1.239174
LINE104,776.847853,-0.822748,659.794741,3.301761,540.767466,1.244010
LINE105,0.000000,3.395667,0.000000,1.103253,0.000000,2.253887
LINE106,44.053417,-0.847272,131.154556,3.311577,81.407989,1.239174
LINE107,776.847853,-0.822748,659.794741,3.301761,540.767466,1.244010
LINE108,0.000000,2.985156,0.000000,0.611530,0.000000,1.725120
LINE109,44.053417,-0.847272,131.154556,3.311577,81.407989,1.239174
LINE110,776.847853,-0.822748,659.794741,3.301761,540.767466,1.244010
LINE111,0.000000,2.926894,0.000000,0.638093,0.000000,1.716040
LINE112,44.053417,-0.847272,131.154556,3.311577,81.407989,1.239174
LINE113,776.847853,-0.822748,659.794741,3.301761,540.767466,1.244010
LINE114,0.000000,2.923861,0.000000,0.640585,0.000000,1.712777
LINE115,44.053417,-0.847272,131.154556,3.311577,81.407989,1.239174
LINE116,44.721263,-0.844068,88.398364,3.311769,81.953166,1.241121
LINE117,732.137375,-0.821446,571.401489,3.300212,458.814703,1.244526
LINE118,0.000000,2.929172,0.000000,0.679127,0.000000,1.706929
LINE119,44.053417,-0.847272,131.154556,3.311577,81.407989,1.239174
LINE120,0.000000,2.473160,0.000000,0.649809,0.000000,4.695269
LINE121,44.721263,-0.844068,88.398364,3.311769,81.953166,1.241121
LINE122,732.137375,-0.821446,571.401489,3.300212,458.814703,1.244526
LINE123,0.000000,3.071830,0.000000,0.643439,0.000000,1.716260
LINE124,44.053417,-0.847272,131.154556,3.311577,81.407989,1.239174
LINE125,0.000000,2.421922,0.000000,0.649809,0.000000,4.701519
LINE126,44.721263,-0.844068,88.398364,3.311769,81.953166,1.241121
LINE127,732.137375,-0.821446,571.401489,3.300212,458.814703,1.244526
LINE128,0.000000,3.447152,0.000000,0.587576,0.000000,1.689471
LINE129,44.053417,-0.847272,131.154556,3.311577,81.407989,1.239174
LINE130,0.000000,1.545864,0.000000,0.515488,0.000000,4.705312
LINE131,44.721263,-0.844068,0.000000,3.760221,0.000000,1.535291
LINE132,0.000000,0.783276,88.398364,3.311769,81.953166,1.241121
LINE133,732.137375,-0.821446,571.401489,3.300212,458.814703,1.244526
LINE134,0.000000,3.431955,0.000000,0.667567,0.000000,1.741003
LINE135,44.053417,-0.847272,131.154556,3.311577,81.407989,1.239174
LINE136,0.000000,1.165358,0.000000,0.585794,0.000000,4.701345
LINE137,44.721263,-0.844068,0.000000,3.686436,0.000000,1.546049
LINE138,0.000000,0.799568,88.398364,3.311769,81.953166,1.241121
LINE139,732.137375,-0.821446,571.401489,3.300212,458.814703,1.244526
LINE140,0.000000,3.503683,0.000000,0.657817,0.000000,1.731677
LINE141,44.053417,-0.847272,131.154556,3.311577,81.407989,1.239174
LINE142,0.000000,1.082217,0.000000,0.438716,0.000000,4.690061
LINE143,44.721263,-0.844068,0.000000,3.796474,0.000000,1.554304
LINE144,0.000000,0.798799,88.398364,3.311769,81.953166,1.241121
LINE145,732.137375,-0.821446,571.401489,3.300212,458.814703,1.244526
LINE146,0.000000,3.696907,0.000000,0.697664,0.000000,1.694233
LINE147,44.053417,-0.847272,131.154556,3.311577,81.407989,1.239174
LINE148,0.000000,1.926371,0.000000,0.438716,0.000000,4.684853
LINE149,44.721263,-0.844068,0.000000,3.688298,0.000000,1.547039
LINE150,0.000000,0.843751,0.000000,2.341647,81.953166,1.241121
LINE151,0.000000,-0.307651,88.398364,3.311769,0.000000,4.705352
LINE152,732.137375,-0.821446,571.401489,3.300212,458.814703,1.244526
LINE153,0.000000,2.637028,0.000000,2.379332,0.000000,1.851343
LINE154,44.053417,-0.847272,131.154556,3.311577,81.407989,1.239174
LINE155,0.000000,0.957862,0.000000,0.311743,0.000000,4.690061
LINE156,44.721263,-0.844068,0.000000,3.760312,0.000000,1.543547
LINE157,0.000000,0.863808,0.000000,2.343425,81.953166,1.241121
LINE158,0.000000,4.592387,88.398364,3.311769,0.000000,4.704400
LINE159,732.137375,-0.821446,571.401489,3.300212,458.814703,1.244526
LINE160,0.000000,3.337991,0.000000,-0.531075,0.000000,0.941838
LINE161,0.000000,2.302110,43.563546,3.311280,0.000000,2.293075
LINE162,44.053417,-0.847272,87.591012,3.311724,81.407989,1.239174
LINE163,0.000000,1.545864,0.000000,0.266525,0.000000,4.691363
LINE164,44.721263,-0.844068,0.000000,3.745422,0.000000,1.539552
LINE165,0.000000,0.860044,0.000000,2.330750,81.953166,1.241121
LINE166,0.000000,3.584710,88.398364,3.311769,0.000000,4.698989
LINE167,732.137375,-0.821446,571.401489,3.300212,458.814703,1.244526
LINE168,0.000000,1.358413,0.000000,1.358413,0.000000,4.519233
LINE169,0.000000,2.461455,43.563546,3.311280,0.000000,1.698018
LINE170,44.053417,-0.847272,87.591012,3.311724,81.407989,1.239174
LINE171,0.000000,1.545864,0.000000,0.379960,0.000000,4.697873
LINE172,44.721263,-0.844068,0.000000,3.632084,0.000000,1.545770
LINE173,0.000000,0.801920,0.000000,2.510182,0.000000,-0.742889
LINE174,0.000000,3.549578,0.000000,0.543772,81.953166,1.241121
LINE175,0.000000,3.032048,88.398364,3.311769,0.000000,4.691175
LINE176,732.137375,-0.821446,571.401489,3.300212,458.814703,1.244526
LINE177,0.000000,4.696232,43.563546,3.311280,0.000000,1.049912
LINE178,44.053417,-0.847272,87.591012,3.311724,0.000000,-1.510037
LINE179,0.000000,0.354102,0.000000,3.188260,81.407989,1.239174
LINE180,0.000000,0.957862,0.000000,0.438716,0.000000,4.695269
LINE181,44.721263,-0.844068,0.000000,3.648656,0.000000,1.538544
LINE182,0.000000,0.828176,0.000000,2.559827,0.000000,-0.646395
LINE183,0.000000,3.573945,0.000000,0.573842,81.953166,1.241121
LINE184,0.000000,2.850075,88.398364,3.311769,0.000000,4.700482
LINE185,732.137375,-0.821446,571.401489,3.300212,458.814703,1.244526
LINE186,44.053417,-0.847272,87.591012,3.311724,0.000000,4.450902
LINE187,0.000000,0.355441,0.000000,3.183212,81.407989,1.239174
LINE188,0.000000,1.545864,0.000000,0.438716,0.000000,4.703081
LINE189,44.721263,-0.844068,0.000000,3.570950,0.000000,1.501580
LINE190,0.000000,1.195560,0.000000,-0.296245,0.000000,4.644039
LINE191,0.000000,0.497104,0.000000,2.676215,0.000000,-0.631564
LINE192,0.000000,3.544230,0.000000,0.456580,81.953166,1.241121
LINE193,0.000000,2.910567,88.398364,3.311769,0.000000,-1.555108
LINE194,732.137375,-0.821446,571.401489,3.300212,458.814703,1.244526
LINE195,44.053417,-0.847272,87.591012,3.311724,0.000000,4.513378
LINE196,0.000000,3.684707,0.000000,-0.416342,40.698645,1.239142
LINE197,0.000000,0.406325,0.000000,3.196940,40.709344,1.239207
LINE198,0.000000,-0.024932,0.000000,0.220047,0.000000,-1.541095
LINE199,44.721263,-0.844068,0.000000,3.598646,0.000000,1.507338
LINE200,0.000000,1.718815,0.000000,-0.189350,0.000000,3.673364
LINE201,0.000000,-0.297959,0.000000,2.212209,0.000000,-0.512937
LINE202,0.000000,3.339483,0.000000,0.543779,81.953166,1.241121
LINE203,0.000000,2.865404,88.398364,3.311769,0.000000,-1.534246
LINE204,732.137375,-0.821446,571.401489,3.300212,458.814703,1.244526
LINE205,44.053417,-0.847272,0.000000,4.263241,0.000000,1.714556
LINE206,0.000000,1.701672,87.591012,3.311724,0.000000,4.181545
LINE207,0.000000,2.577891,0.000000,-0.525154,40.698645,1.239142
LINE208,0.000000,0.338029,0.000000,3.172857,40.709344,1.239207
LINE209,0.000000,3.580308,0.000000,0.760466,0.000000,4.703081
LINE210,44.721263,-0.844068,0.000000,3.613974,0.000000,1.524297
LINE211,0.000000,-0.137023,0.000000,2.544511,0.000000,-0.255019
LINE212,0.000000,3.187332,0.000000,0.765799,81.953166,1.241121
LINE213,0.000000,2.815016,88.398364,3.311769,0.000000,-1.532092
LINE214,732.137375,-0.821446,571.401489,3.300212,458.814703,1.244526
LINE215,44.053417,-0.847272,0.000000,3.549000,0.000000,2.614635
LINE216,0.000000,1.908781,87.591012,3.311724,0.000000,4.061408
LINE217,0.000000,1.083587,0.000000,3.244642,40.709344,1.239207
LINE218,0.000000,0.000000,0.000000,0.000000,0.000000,3.116661
LINE219,44.721263,-0.844068,0.000000,3.598250,0.000000,1.528348
LINE220,0.000000,-0.863566,0.000000,2.497555,0.000000,-0.330194
LINE221,0.000000,3.154778,0.000000,0.846499,81.953166,1.241121
LINE222,0.000000,2.770314,88.398364,3.311769,0.000000,-1.535132
LINE223,732.137375,-0.821446,571.401489,3.300212,458.814703,1.244526
LINE224,44.053417,-0.847272,0.000000,3.112498,0.000000,1.711923
LINE225,0.000000,1.922155,87.591012,3.311724,0.000000,3.788521
LINE226,0.000000,0.501672,0.000000,3.657189,40.709344,1.239207
LINE227,44.721263,-0.844068,0.000000,3.581457,0.000000,1.532159
LINE228,0.000000,-0.453202,0.000000,2.613028,0.000000,0.878351
LINE229,0.000000,3.104066,0.000000,0.665448,81.953166,1.241121
LINE230,0.000000,2.971272,88.398364,3.311769,0.000000,-1.507351
LINE231,732.137375,-0.821446,571.401489,3.300212,458.814703,1.244526
LINE232,0.000000,-0.656295,87.591012,3.311724,0.000000,1.584534
LINE233,0.000000,2.908090,0.000000,-0.132754,0.000000,3.714232
LINE234,0.000000,-0.119370,0.000000,3.724360,40.709344,1.239207
LINE235,44.721263,-0.844068,0.000000,3.682568,0.000000,1.575229
LINE236,0.000000,-0.897490,0.000000,2.516818,0.000000,0.600000
LINE237,0.000000,3.316154,0.000000,0.864466,81.953166,1.241121
LINE238,0.000000,3.026142,88.398364,3.311769,0.000000,-1.523127
LINE239,732.137375,-0.821446,571.401489,3.300212,458.814703,1.244526
LINE240,0.000000,-1.496291,87.591012,3.311724,0.000000,1.523083
LINE241,0.000000,-0.475819,0.000000,-1.327945,40.709344,1.239207
LINE242,44.721263,-0.844068,0.000000,3.695246,0.000000,1.556945
LINE243,0.000000,-0.728261,0.000000,2.744225,0.000000,1.179859
LINE244,0.000000,3.300879,0.000000,0.948083,81.953166,1.241121
LINE245,0.000000,2.990287,88.398364,3.311769,0.000000,-1.541039
LINE246,732.137375,-0.821446,571.401489,3.300212,458.814703,1.244526
LINE247,0.000000,-1.476688,43.795506,3.311724,0.000000,1.559203
LINE248,0.000000,-1.477436,43.795506,3.311724,0.000000,1.519771
LINE249,0.000000,-1.081068,0.000000,0.458435,40.709344,1.239207
LINE250,44.721263,-0.844068,0.000000,3.339112,0.000000,1.556888
LINE251,0.000000,-0.979945,0.000000,2.266625,0.000000,1.254778
LINE252,0.000000,3.257131,0.000000,0.669541,81.953166,1.241121
LINE253,0.000000,2.965293,88.398364,3.311769,0.000000,-1.537573
LINE254,46.235335,-0.839153,0.000000,-0.089830,0.000000,4.590452
LINE255,685.909777,-0.820252,571.401489,3.300212,458.814703,1.244526
LINE256,0.000000,-0.087102,0.000000,-0.121530,40.709344,1.239207
LINE257,44.721263,-0.844068,0.000000,4.060482,0.000000,1.636078
LINE258,0.000000,-0.289247,0.000000,2.783403,0.000000,1.643536
LINE259,0.000000,3.283463,0.000000,0.560205,81.953166,1.241121
LINE260,0.000000,2.905777,88.398364,3.311769,0.000000,-1.477433
LINE261,46.235335,-0.839153,0.000000,-0.112667,0.000000,4.593382
LINE262,685.909777,-0.820252,571.401489,3.300212,458.814703,1.244526
LINE263,0.000000,1.446760,0.000000,-1.034158,40.709344,1.239207
LINE264,44.721263,-0.844068,0.000000,-0.084703,0.000000,1.584027
LINE265,0.000000,-0.194387,0.000000,2.961615,0.000000,1.233692
LINE266,0.000000,3.261207,0.000000,0.648810,81.953166,1.241121
LINE267,0.000000,3.067717,44.209949,3.311829,0.000000,4.548959
LINE268,0.000000,2.811409,44.188415,3.311708,0.000000,-1.556106
LINE269,46.235335,-0.839153,0.000000,-0.151606,0.000000,4.601682
LINE270,0.000000,-0.212959,0.000000,3.298314,41.299898,1.244891
LINE271,685.909777,-0.820252,571.401489,3.300212,417.514807,1.244489
LINE272,44.721263,-0.844068,0.000000,0.122804,0.000000,1.572231
LINE273,0.000000,0.055414,0.000000,3.338500,0.000000,0.771354
LINE274,0.000000,3.215548,0.000000,0.492965,81.953166,1.241121
LINE275,0.000000,3.747244,44.209949,3.311829,0.000000,1.600348
LINE276,0.000000,2.797948,44.188415,3.311708,0.000000,-1.530707
LINE277,46.235335,-0.839153,0.000000,-0.127727,0.000000,4.630458
LINE278,0.000000,-0.497455,0.000000,3.454477,41.299898,1.244891
LINE279,685.909777,-0.820252,571.401489,3.300212,417.514807,1.244489
LINE280,44.721263,-0.844068,0.000000,-0.974252,0.000000,1.579249
LINE281,0.000000,1.923710,0.000000,-1.070142,0.000000,0.863251
LINE282,0.000000,3.307524,0.000000,0.171333,81.953166,1.241121
LINE283,0.000000,2.490967,44.188415,3.311708,0.000000,-1.566805
LINE284,46.235335,-0.839153,0.000000,-0.133352,0.000000,4.623823
LINE285,0.000000,-0.633560,0.000000,3.302171,41.299898,1.244891
LINE286,343.369332,-0.818146,189.263726,3.293539,82.265782,1.246795
LINE287,342.541970,-0.822363,382.144064,3.303517,335.249298,1.243924
LINE288,44.721263,-0.844068,0.000000,4.345020,0.000000,-1.538959
LINE289,0.000000,1.666982,0.000000,-1.037077,0.000000,2.176873
LINE290,0.000000,3.460368,0.000000,-0.291489,40.992201,1.241215
LINE291,0.000000,3.616898,0.000000,1.002052,40.960966,1.241027
LINE292,0.000000,2.484082,44.188415,3.311708,0.000000,4.699176
LINE293,46.235335,-0.839153,0.000000,-0.189200,0.000000,4.664806
LINE294,0.000000,-0.408475,0.000000,3.380654,41.299898,1.244891
LINE295,343.369332,-0.818146,189.263726,3.293539,82.265782,1.246795
LINE296,342.541970,-0.822363,382.144064,3.303517,335.249298,1.243924
LINE297,0.000000,-0.597924,0.000000,0.159383,40.992201,1.241215
LINE298,0.000000,4.361827,0.000000,2.324571,40.960966,1.241027
LINE299,0.000000,2.760312,44.188415,3.311708,0.000000,-1.567312
LINE300,46.235335,-0.839153,0.000000,-0.256054,0.000000,4.669844
LINE301,0.000000,-0.431087,0.000000,3.368272,41.299898,1.244891
LINE302,343.369332,-0.818146,189.263726,3.293539,82.265782,1.246795
LINE303,342.541970,-0.822363,382.144064,3.303517,335.249298,1.243924
LINE304,0.000000,-0.881224,0.000000,0.809866,40.992201,1.241215
LINE305,0.000000,3.156839,0.000000,0.220651,40.960966,1.241027
LINE306,0.000000,-0.782292,44.188415,3.311708,0.000000,4.293909
LINE307,46.235335,-0.839153,0.000000,-0.289888,0.000000,4.634665
LINE308,0.000000,-0.543689,0.000000,3.215622,41.299898,1.244891
LINE309,343.369332,-0.818146,189.263726,3.293539,82.265782,1.246795
LINE310,342.541970,-0.822363,382.144064,3.303517,335.249298,1.243924
LINE311,0.000000,1.859977,0.000000,-0.281795,40.992201,1.241215
LINE312,0.000000,2.903013,0.000000,0.804888,40.960966,1.241027
LINE313,0.000000,3.355991,44.188415,3.311708,0.000000,1.396312
LINE314,46.235335,-0.839153,0.000000,-0.368100,0.000000,4.644233
LINE315,0.000000,-0.520248,0.000000,3.227143,41.299898,1.244891
LINE316,94.444053,-0.833987,0.000000,0.062871,0.000000,1.518381
LINE317,248.941622,-0.812137,189.263726,3.293539,82.265782,1.246795
LINE318,342.541970,-0.822363,382.144064,3.303517,335.249298,1.243924
LINE319,0.000000,2.976346,0.000000,-0.658603,40.992201,1.241215
LINE320,0.000000,2.873833,0.000000,0.371221,40.960966,1.241027
LINE321,46.235335,-0.839153,0.000000,-0.276928,0.000000,4.650552
LINE322,0.000000,-0.165159,0.000000,3.131883,41.299898,1.244891
LINE323,94.444053,-0.833987,0.000000,0.083941,0.000000,1.526396
LINE324,248.941622,-0.812137,189.263726,3.293539,82.265782,1.246795
LINE325,342.541970,-0.822363,382.144064,3.303517,335.249298,1.243924
LINE326,0.000000,-0.196710,0.000000,1.539840,40.960966,1.241027
LINE327,46.235335,-0.839153,0.000000,-0.298409,0.000000,4.663537
LINE328,0.000000,-0.740808,0.000000,3.599537,41.299898,1.244891
LINE329,94.444053,-0.833987,0.000000,0.070890,0.000000,1.529092
LINE330,0.000000,-0.203802,0.000000,3.150579,41.275560,1.246895
LINE331,248.941622,-0.812137,189.263726,3.293539,40.990222,1.246695
LINE332,342.541970,-0.822363,382.144064,3.303517,335.249298,1.243924
LINE333,46.235335,-0.839153,0.000000,-0.265110,0.000000,4.665516
LINE334,0.000000,2.199422,0.000000,-0.435601,41.299898,1.244891
LINE335,94.444053,-0.833987,0.000000,0.064603,0.000000,1.530727
LINE336,0.000000,0.354371,0.000000,3.079619,41.275560,1.246895
LINE337,0.000000,1.790913,45.934324,3.299313,0.000000,4.698494
LINE338,248.941622,-0.812137,143.330413,3.291689,40.990222,1.246695
LINE339,342.541970,-0.822363,382.144064,3.303517,335.249298,1.243924
LINE340,46.235335,-0.839153,0.000000,-0.282758,0.000000,4.655348
LINE341,0.000000,1.790795,0.000000,3.664058,41.299898,1.244891
LINE342,47.201041,-0.834096,0.000000,-0.586161,0.000000,1.540924
LINE343,47.243013,-0.833877,0.000000,0.014165,0.000000,1.535890
LINE344,0.000000,1.765410,45.934324,3.299313,0.000000,4.698870
LINE345,248.941622,-0.812137,143.330413,3.291689,40.990222,1.246695
LINE346,342.541970,-0.822363,382.144064,3.303517,335.249298,1.243924
LINE347,46.235335,-0.839153,0.000000,-0.185292,0.000000,4.676113
LINE348,47.201041,-0.834096,0.000000,-0.644634,0.000000,1.447807
LINE349,47.243013,-0.833877,0.000000,0.071665,0.000000,1.550425
LINE350,0.000000,2.074789,45.934324,3.299313,0.000000,4.687319
LINE351,248.941622,-0.812137,143.330413,3.291689,40.990222,1.246695
LINE352,342.541970,-0.822363,382.144064,3.303517,335.249298,1.243924
LINE353,46.235335,-0.839153,0.000000,-0.162624,0.000000,4.668213
LINE354,47.243013,-0.833877,0.000000,0.023895,0.000000,1.518953
LINE355,0.000000,1.696755,45.934324,3.299313,0.000000,4.709458
LINE356,248.941622,-0.812137,143.330413,3.291689,40.990222,1.246695
LINE357,342.541970,-0.822363,382.144064,3.303517,335.249298,1.243924
LINE358,46.235335,-0.839153,0.000000,-0.626033,0.000000,4.701481
LINE359,47.243013,-0.833877,0.000000,0.260792,0.000000,1.163727
LINE360,0.000000,2.595076,45.934324,3.299313,0.000000,-1.555626
LINE361,248.941622,-0.812137,143.330413,3.291689,40.990222,1.246695
LINE362,342.541970,-0.822363,382.144064,3.303517,335.249298,1.243924
LINE363,46.235335,-0.839153,0.000000,-1.002676,0.000000,4.687033
LINE364,47.243013,-0.833877,0.000000,0.068467,0.000000,1.578473
LINE365,0.000000,2.935775,45.934324,3.299313,0.000000,4.688388
LINE366,248.941622,-0.812137,143.330413,3.291689,40.990222,1.246695
LINE367,342.541970,-0.822363,382.144064,3.303517,335.249298,1.243924
LINE368,46.235335,-0.839153,0.000000,4.497758,0.000000,1.739800
LINE369,47.243013,-0.833877,0.000000,0.372563,0.000000,1.623119
LINE370,0.000000,2.680738,45.934324,3.299313,0.000000,-1.367607
LINE371,248.941622,-0.812137,143.330413,3.291689,40.990222,1.246695
LINE372,342.541970,-0.822363,382.144064,3.303517,335.249298,1.243924
LINE373,46.235335,-0.839153,0.000000,-0.390044,0.000000,1.593706
LINE374,47.243013,-0.833877,0.000000,0.453025,0.000000,1.554586
LINE375,0.000000,2.493275,45.934324,3.299313,0.000000,4.669082
LINE376,248.941622,-0.812137,143.330413,3.291689,40.990222,1.246695
LINE377,342.541970,-0.822363,382.144064,3.303517,293.702503,1.243704
LINE378,0.000000,0.524735,0.000000,1.880237,41.546852,1.245475
LINE379,46.235335,-0.839153,0.000000,2.172977,0.000000,2.071099
LINE380,47.243013,-0.833877,0.000000,0.904684,0.000000,2.057137
LINE381,0.000000,2.612852,45.934324,3.299313,0.000000,-1.541161
LINE382,248.941622,-0.812137,143.330413,3.291689,40.990222,1.246695
LINE383,342.541970,-0.822363,382.144064,3.303517,293.702503,1.243704
LINE384,0.000000,-0.769615,0.000000,3.397219,41.546852,1.245475
LINE385,0.000000,1.028748,0.000000,0.479755,0.000000,4.626829
LINE386,46.235335,-0.839153,0.000000,2.449041,0.000000,1.488252
LINE387,47.243013,-0.833877,0.000000,3.076584,0.000000,4.677704
LINE388,0.000000,2.163772,45.934324,3.299313,0.000000,4.703374
LINE389,248.941622,-0.812137,143.330413,3.291689,40.990222,1.246695
LINE390,342.541970,-0.822363,382.144064,3.303517,293.702503,1.243704
LINE391,0.000000,-0.796535,0.000000,3.405152,41.546852,1.245475
LINE392,0.000000,1.000076,0.000000,0.451239,0.000000,4.632463
LINE393,0.000000,1.033525,45.934324,3.299313,0.000000,-1.523623
LINE394,248.941622,-0.812137,143.330413,3.291689,40.990222,1.246695
LINE395,0.000000,2.843041,0.000000,0.040326,83.432432,1.245676
LINE396,342.541970,-0.822363,382.144064,3.303517,210.270297,1.242922
LINE397,0.000000,-1.016490,0.000000,3.438296,41.546852,1.245475
LINE398,0.000000,0.918063,0.000000,0.501678,0.000000,4.620891
LINE399,0.000000,-0.110479,45.934324,3.299313,0.000000,1.467276
LINE400,248.941622,-0.812137,143.330413,3.291689,40.990222,1.246695
LINE401,0.000000,2.858714,0.000000,0.057386,83.432432,1.245676
LINE402,342.541970,-0.822363,382.144064,3.303517,210.270297,1.242922
LINE403,0.000000,-0.848631,0.000000,3.443832,41.546852,1.245475
LINE404,0.000000,0.786459,0.000000,0.502233,0.000000,1.646121
LINE405,0.000000,-0.062045,45.934324,3.299313,0.000000,4.449993
LINE406,248.941622,-0.812137,143.330413,3.291689,40.990222,1.246695
LINE407,0.000000,2.812251,0.000000,0.031415,83.432432,1.245676
LINE408,342.541970,-0.822363,382.144064,3.303517,210.270297,1.242922
LINE409,0.000000,-1.233000,0.000000,3.772767,0.000000,2.323399
LINE410,0.000000,-1.491307,0.000000,3.759841,41.546852,1.245475
LINE411,0.000000,1.026304,0.000000,0.681863,0.000000,1.600596
LINE412,248.941622,-0.812137,143.330413,3.291689,40.990222,1.246695
LINE413,0.000000,2.716096,0.000000,0.126561,83.432432,1.245676
LINE414,342.541970,-0.822363,382.144064,3.303517,210.270297,1.242922
LINE415,0.000000,-1.303102,0.000000,3.867432,0.000000,2.373670
LINE416,0.000000,-0.975028,0.000000,3.625719,41.546852,1.245475
LINE417,0.000000,0.980342,0.000000,0.146828,0.000000,1.608604
LINE418,248.941622,-0.812137,143.330413,3.291689,40.990222,1.246695
LINE419,0.000000,2.792185,0.000000,0.001868,83.432432,1.245676
LINE420,342.541970,-0.822363,382.144064,3.303517,210.270297,1.242922
LINE421,0.000000,4.617211,0.000000,3.869273,0.000000,2.408734
LINE422,0.000000,-0.756332,0.000000,3.691904,41.546852,1.245475
LINE423,0.000000,1.117414,0.000000,0.212558,0.000000,1.601731
LINE424,248.941622,-0.812137,143.330413,3.291689,40.990222,1.246695
LINE425,0.000000,0.000000,0.000000,0.000000,0.000000,0.000000
LINE426,0.000000,2.769687,0.000000,0.011693,83.432432,1.245676
LINE427,342.541970,-0.822363,382.144064,3.303517,210.270297,1.242922
LINE428,0.000000,-1.062953,0.000000,3.664726,0.000000,2.294198
LINE429,0.000000,3.166129,0.000000,-0.253634,41.546852,1.245475
LINE430,0.000000,1.002965,0.000000,0.194920,0.000000,1.598818
LINE431,248.941622,-0.812137,143.330413,3.291689,40.990222,1.246695
LINE432,0.000000,1.484225,0.000000,1.484225,0.000000,4.638585
LINE433,0.000000,2.756282,0.000000,-0.008955,83.432432,1.245676
LINE434,342.541970,-0.822363,382.144064,3.303517,210.270297,1.242922
LINE435,0.000000,-1.389477,0.000000,3.639424,0.000000,2.470985
LINE436,0.000000,3.173169,0.000000,-0.662451,41.546852,1.245475
LINE437,0.000000,0.904083,0.000000,0.251621,0.000000,1.604866
LINE438,248.941622,-0.812137,143.330413,3.291689,40.990222,1.246695
LINE439,0.000000,0.000000,0.000000,0.000000,0.000000,0.000000
LINE440,0.000000,2.768761,0.000000,-0.035442,83.432432,1.245676
LINE441,342.541970,-0.822363,382.144064,3.303517,210.270297,1.242922
LINE442,0.000000,-1.405996,0.000000,3.605266,0.000000,2.726301
LINE443,0.000000,3.132787,0.000000,-0.102887,41.546852,1.245475
LINE444,0.000000,0.816020,0.000000,0.361558,0.000000,1.605017
LINE445,248.941622,-0.812137,143.330413,3.291689,40.990222,1.246695
LINE446,0.000000,-0.201681,0.000000,-0.201681,0.000000,2.996186
LINE447,0.000000,2.795747,0.000000,-0.051169,83.432432,1.245676
LINE448,342.541970,-0.822363,382.144064,3.303517,210.270297,1.242922
LINE449,0.000000,4.600789,0.000000,3.452199,0.000000,2.988121
LINE450,0.000000,2.828806,0.000000,0.651582,41.546852,1.245475
LINE451,0.000000,0.631548,0.000000,0.185177,0.000000,1.622055
LINE452,248.941622,-0.812137,143.330413,3.291689,40.990222,1.246695
LINE453,0.000000,0.107298,0.000000,3.548429,0.000000,2.504633
LINE454,0.000000,2.763903,0.000000,-0.079498,83.432432,1.245676
LINE455,342.541970,-0.822363,382.144064,3.303517,210.270297,1.242922
LINE456,0.000000,3.598143,0.000000,3.330894,0.000000,2.430173
LINE457,0.000000,-0.356681,0.000000,0.117659,41.546852,1.245475
LINE458,0.000000,0.792544,0.000000,0.184172,0.000000,1.693801
LINE459,199.681761,-0.810926,143.330413,3.291689,40.990222,1.246695
LINE460,0.000000,0.616192,0.000000,2.625047,0.000000,-1.523502
LINE461,49.260601,-0.817045,0.000000,1.674282,0.000000,-1.418590
LINE462,0.000000,2.811580,0.000000,-0.050403,83.432432,1.245676
LINE463,342.541970,-0.822363,382.144064,3.303517,210.270297,1.242922
LINE464,0.000000,4.299233,0.000000,3.366956,0.000000,1.941789
LINE465,0.000000,0.846192,0.000000,0.273873,0.000000,1.741988
LINE466,199.681761,-0.810926,143.330413,3.291689,40.990222,1.246695
LINE467,0.000000,2.939912,0.000000,2.939912,0.000000,-0.145406
LINE468,0.000000,-0.201681,0.000000,-0.201681,0.000000,2.996186
LINE469,49.260601,-0.817045,0.000000,1.771536,0.000000,-1.434250
LINE470,0.000000,2.731850,0.000000,-0.011060,83.432432,1.245676
LINE471,342.541970,-0.822363,382.144064,3.303517,210.270297,1.242922
LINE472,0.000000,4.555614,0.000000,3.519606,0.000000,2.136951
LINE473,0.000000,0.792600,0.000000,0.379505,0.000000,1.723924
LINE474,199.681761,-0.810926,143.330413,3.291689,40.990222,1.246695
LINE475,0.000000,-0.201681,0.000000,2.995720,0.000000,-0.197060
LINE476,49.260601,-0.817045,0.000000,1.465914,0.000000,-1.430974
LINE477,0.000000,2.727739,0.000000,-0.027296,83.432432,1.245676
LINE478,342.541970,-0.822363,382.144064,3.303517,210.270297,1.242922
LINE479,0.000000,-1.560790,0.000000,3.809547,0.000000,2.004652
LINE480,0.000000,1.123373,0.000000,0.155109,0.000000,3.257029
LINE481,100.018100,-0.809375,143.330413,3.291689,40.990222,1.246695
LINE482,0.000000,-0.263535,0.000000,2.046620,0.000000,1.589249
LINE483,99.663902,-0.812482,0.000000,0.099887,0.000000,4.663512
LINE484,49.260601,-0.817045,0.000000,1.831354,0.000000,-1.392245
LINE485,0.000000,2.649229,0.000000,0.020458,83.432432,1.245676
LINE486,342.541970,-0.822363,382.144064,3.303517,210.270297,1.242922
LINE487,0.000000,-0.954532,0.000000,3.664593,0.000000,1.831130
LINE488,0.000000,0.704802,0.000000,4.613587,0.000000,1.770158
LINE489,100.018100,-0.809375,143.330413,3.291689,40.990222,1.246695
LINE490,0.000000,2.991022,0.000000,-0.162116,0.000000,-1.539367
LINE491,49.823571,-0.812524,0.000000,0.088832,0.000000,4.662711
LINE492,49.840331,-0.812441,0.000000,-0.465348,0.000000,4.645623
LINE493,49.260601,-0.817045,0.000000,1.579968,0.000000,-1.432414
LINE494,0.000000,2.706759,0.000000,-0.143093,83.432432,1.245676
LINE495,342.541970,-0.822363,382.144064,3.303517,210.270297,1.242922
LINE496,0.000000,-0.810486,0.000000,3.905430,0.000000,2.044041
LINE497,0.000000,1.494716,0.000000,4.635443,0.000000,3.475515
LINE498,100.018100,-0.809375,143.330413,3.291689,40.990222,1.246695
LINE499,0.000000,0.708920,0.000000,-0.118400,0.000000,0.095435
LINE500,49.823571,-0.812524,0.000000,0.061377,0.000000,4.660457
LINE501,49.840331,-0.812441,0.000000,1.951320,0.000000,1.692055
LINE502,49.260601,-0.817045,0.000000,1.860148,0.000000,-1.412454
LINE503,0.000000,2.543161,0.000000,0.051247,83.432432,1.245676
LINE504,342.541970,-0.822363,382.144064,3.303517,210.270297,1.242922
LINE505,0.000000,-0.661897,0.000000,3.771422,0.000000,2.013261
LINE506,0.000000,-0.149575,0.000000,-0.149575,0.000000,3.066247
LINE507,100.018100,-0.809375,143.330413,3.291689,40.990222,1.246695
LINE508,0.000000,1.742991,0.000000,4.358720,0.000000,1.366195
LINE509,49.823571,-0.812524,0.000000,0.030621,0.000000,4.634256
LINE510,49.260601,-0.817045,0.000000,2.051732,0.000000,-1.422100
LINE511,0.000000,2.701412,0.000000,0.174882,83.432432,1.245676
LINE512,0.000000,1.128816,46.451404,3.303787,0.000000,4.624020
LINE513,342.541970,-0.822363,335.692662,3.303480,210.270297,1.242922
LINE514,0.000000,-0.708341,0.000000,3.685577,0.000000,2.059152
LINE515,0.000000,1.367209,143.330413,3.291689,40.990222,1.246695
LINE516,0.000000,0.000000,0.000000,0.000000,0.000000,0.000000
LINE517,100.018100,-0.809375,0.000000,-0.149448,0.000000,1.257806
LINE518,49.823571,-0.812524,0.000000,0.252066,0.000000,4.648014
LINE519,49.260601,-0.817045,0.000000,2.205041,0.000000,-1.446155
LINE520,0.000000,-1.484105,0.000000,0.228934,83.432432,1.245676
LINE521,0.000000,1.747045,46.451404,3.303787,0.000000,1.522700
LINE522,342.541970,-0.822363,335.692662,3.303480,210.270297,1.242922
LINE523,0.000000,-0.304543,0.000000,3.872135,0.000000,2.035112
LINE524,0.000000,1.378942,143.330413,3.291689,40.990222,1.246695
LINE525,0.000000,3.544667,0.000000,3.544667,0.000000,1.368098
LINE526,100.018100,-0.809375,0.000000,-0.155672,0.000000,1.256385
LINE527,49.823571,-0.812524,0.000000,0.339336,0.000000,4.690119
LINE528,49.260601,-0.817045,0.000000,2.821924,0.000000,-1.372486
LINE529,0.000000,1.921093,0.000000,0.940414,83.432432,1.245676
LINE530,342.541970,-0.822363,335.692662,3.303480,210.270297,1.242922
LINE531,0.000000,-0.409761,0.000000,3.562438,0.000000,1.579521
LINE532,0.000000,1.391306,143.330413,3.291689,40.990222,1.246695
LINE533,0.000000,2.939912,0.000000,2.939912,0.000000,-0.145406
LINE534,100.018100,-0.809375,0.000000,-0.153223,0.000000,1.232974
LINE535,49.823571,-0.812524,0.000000,0.131226,0.000000,4.672543
LINE536,49.260601,-0.817045,0.000000,2.843539,0.000000,-1.406663
LINE537,0.000000,-0.354536,0.000000,3.633971,41.734552,1.245785
LINE538,0.000000,3.433553,0.000000,3.433553,41.697881,1.245568
LINE539,342.541970,-0.822363,335.692662,3.303480,210.270297,1.242922
LINE540,0.000000,-0.575238,0.000000,4.146244,0.000000,2.061050
LINE541,0.000000,1.376878,143.330413,3.291689,40.990222,1.246695
LINE542,0.000000,-0.201681,0.000000,-0.201681,0.000000,2.996186
LINE543,100.018100,-0.809375,0.000000,-0.150623,0.000000,1.229324
LINE544,49.823571,-0.812524,0.000000,-1.049695,0.000000,1.830037
LINE545,49.260601,-0.817045,0.000000,2.859173,0.000000,-1.382761
LINE546,0.000000,4.308877,0.000000,2.590150,41.734552,1.245785
LINE547,342.541970,-0.822363,335.692662,3.303480,210.270297,1.242922
LINE548,0.000000,-0.525060,0.000000,4.301097,0.000000,1.801237
LINE549,0.000000,1.389436,143.330413,3.291689,40.990222,1.246695
LINE550,0.000000,2.939912,0.000000,2.939912,0.000000,-0.145406
LINE551,50.006964,-0.809385,0.000000,-0.340287,0.000000,1.344665
LINE552,50.011136,-0.809365,0.000000,2.634203,0.000000,1.494395
LINE553,49.823571,-0.812524,0.000000,-1.223541,0.000000,1.636075
LINE554,49.260601,-0.817045,0.000000,2.882300,0.000000,-1.370597
LINE555,0.000000,-0.236431,0.000000,-1.336935,41.734552,1.245785
LINE556,342.541970,-0.822363,335.692662,3.303480,210.270297,1.242922
LINE557,0.000000,0.555880,0.000000,0.266418,0.000000,4.118761
LINE558,0.000000,1.389447,143.330413,3.291689,40.990222,1.246695
LINE559,0.000000,-1.553981,0.000000,3.333008,0.000000,3.764559
LINE560,50.006964,-0.809385,0.000000,-0.087061,0.000000,1.388445
LINE561,50.011136,-0.809365,0.000000,2.829339,0.000000,1.483675
LINE562,49.823571,-0.812524,0.000000,0.222229,0.000000,4.345519
LINE563,49.260601,-0.817045,0.000000,2.823273,0.000000,-1.392558
LINE564,342.541970,-0.822363,335.692662,3.303480,210.270297,1.242922
LINE565,0.000000,1.757370,0.000000,1.757370,0.000000,-0.843265
LINE566,0.000000,1.401181,47.736605,3.291786,40.990222,1.246695
LINE567,0.000000,0.490493,0.000000,0.490493,0.000000,4.415502
LINE568,0.000000,-1.368461,95.593808,3.291640,0.000000,4.570861
LINE569,50.006964,-0.809385,0.000000,4.374646,0.000000,1.475081
LINE570,49.260601,-0.817045,0.000000,2.361825,0.000000,-1.526404
LINE571,342.541970,-0.822363,335.692662,3.303480,210.270297,1.242922
LINE572,0.000000,1.351993,47.736605,3.291786,40.990222,1.246695
LINE573,0.000000,-0.037570,0.000000,-0.037570,0.000000,-0.082565
LINE574,0.000000,-1.104064,95.593808,3.291640,0.000000,4.522093
LINE575,50.006964,-0.809385,0.000000,4.286503,0.000000,1.548121
LINE576,49.260601,-0.817045,0.000000,2.275240,0.000000,-1.507876
LINE577,342.541970,-0.822363,335.692662,3.303480,210.270297,1.242922
LINE578,0.000000,3.109409,47.736605,3.291786,40.990222,1.246695
LINE579,0.000000,-1.191721,0.000000,1.225628,0.000000,3.421495
LINE580,0.000000,1.445240,0.000000,-1.137759,0.000000,1.201656
LINE581,0.000000,3.058600,95.593808,3.291640,0.000000,4.622794
LINE582,50.006964,-0.809385,0.000000,0.165912,0.000000,1.415809
LINE583,49.260601,-0.817045,0.000000,2.781383,0.000000,-1.214067
LINE584,0.000000,-0.596242,46.590104,3.303938,0.000000,1.580736
LINE585,342.541970,-0.822363,289.102563,3.303406,210.270297,1.242922
LINE586,0.000000,2.848189,47.736605,3.291786,40.990222,1.246695
LINE587,0.000000,3.071035,0.000000,-0.510330,0.000000,-1.264222
LINE588,0.000000,1.525246,0.000000,-1.285884,0.000000,0.506407
LINE589,0.000000,2.844020,95.593808,3.291640,0.000000,4.656353
LINE590,50.006964,-0.809385,0.000000,2.822478,0.000000,1.576979
LINE591,49.260601,-0.817045,0.000000,2.821424,0.000000,-1.428991
LINE592,0.000000,-0.573064,46.590104,3.303938,0.000000,1.584029
LINE593,342.541970,-0.822363,289.102563,3.303406,210.270297,1.242922
LINE594,0.000000,4.069054,47.736605,3.291786,0.000000,4.524837
LINE595,0.000000,1.198552,0.000000,0.255256,40.990222,1.246695
LINE596,0.000000,1.407531,0.000000,-1.148338,0.000000,1.690590
LINE597,0.000000,2.934503,95.593808,3.291640,0.000000,4.647333
LINE598,50.006964,-0.809385,0.000000,2.599091,0.000000,3.821272
LINE599,49.260601,-0.817045,0.000000,2.684654,0.000000,1.441420
LINE600,0.000000,-0.593686,46.590104,3.303938,0.000000,1.566781
LINE601,0.000000,3.034618,0.000000,-0.057304,41.797727,1.243472
LINE602,342.541970,-0.822363,289.102563,3.303406,168.472578,1.242785
LINE603,0.000000,3.246909,47.736605,3.291786,0.000000,3.881670
LINE604,0.000000,2.939912,0.000000,2.939912,0.000000,-0.145406
LINE605,0.000000,2.939912,0.000000,2.939912,0.000000,-0.145406
LINE606,0.000000,-0.212288,0.000000,3.127706,40.990222,1.246695
LINE607,0.000000,2.992017,0.000000,2.992017,0.000000,-0.075346
LINE608,0.000000,1.369246,0.000000,4.638664,0.000000,1.589347
LINE609,0.000000,2.934093,95.593808,3.291640,0.000000,4.648017
LINE610,50.006964,-0.809385,0.000000,-0.866682,0.000000,1.937221
LINE611,49.260601,-0.817045,0.000000,2.156772,0.000000,1.386661
LINE612,0.000000,-0.602316,46.590104,3.303938,0.000000,1.541910
LINE613,0.000000,-1.277170,0.000000,0.883729,41.797727,1.243472
LINE614,342.541970,-0.822363,289.102563,3.303406,168.472578,1.242785
LINE615,0.000000,4.181223,47.736605,3.291786,0.000000,-0.067519
LINE616,0.000000,2.939912,0.000000,2.939912,0.000000,-0.145406
LINE617,0.000000,1.369116,0.000000,4.566983,0.000000,1.369116
LINE618,0.000000,-0.072605,0.000000,3.061667,40.990222,1.246695
LINE619,0.000000,1.450000,0.000000,-0.553480,0.000000,0.185928
LINE620,0.000000,3.038224,95.593808,3.291640,0.000000,4.653607
LINE621,49.260601,-0.817045,0.000000,-0.942514,0.000000,4.658097
LINE622,0.000000,-0.797891,46.590104,3.303938,0.000000,1.536460
LINE623,0.000000,0.015823,46.864902,3.302368,0.000000,4.704663
LINE624,342.541970,-0.822363,242.237692,3.303607,168.472578,1.242785
LINE625,0.000000,4.644870,47.736605,3.291786,0.000000,1.386622
LINE626,0.000000,1.052872,0.000000,-1.096199,0.000000,1.192261
LINE627,0.000000,3.183461,95.593808,3.291640,0.000000,4.651770
LINE628,49.260601,-0.817045,0.000000,2.952802,0.000000,1.499560
LINE629,0.000000,-0.740244,46.590104,3.303938,0.000000,1.514398
LINE630,0.000000,-0.076446,46.864902,3.302368,0.000000,4.697153
LINE631,342.541970,-0.822363,242.237692,3.303607,168.472578,1.242785
LINE632,0.000000,4.644870,47.736605,3.291786,0.000000,-0.067519
LINE633,0.000000,1.446853,0.000000,-0.338919,0.000000,1.807652
LINE634,0.000000,3.235412,95.593808,3.291640,0.000000,4.636051
LINE635,0.000000,-0.674486,46.590104,3.303938,0.000000,1.521541
LINE636,0.000000,-0.036902,46.864902,3.302368,0.000000,4.651052
LINE637,342.541970,-0.822363,242.237692,3.303607,168.472578,1.242785
LINE638,0.000000,0.000000,47.736605,3.291786,0.000000,3.074074
LINE639,0.000000,1.889153,0.000000,-0.473914,0.000000,2.084002
LINE640,0.000000,3.194882,95.593808,3.291640,0.000000,4.636090
LINE641,0.000000,-0.658908,46.590104,3.303938,0.000000,1.516365
LINE642,0.000000,-0.298139,46.864902,3.302368,0.000000,4.298223
LINE643,342.541970,-0.822363,242.237692,3.303607,168.472578,1.242785
LINE644,0.000000,1.957294,0.000000,3.316093,0.000000,2.030063
LINE645,0.000000,3.421026,95.593808,3.291640,0.000000,4.618459
LINE646,0.000000,-0.657596,46.590104,3.303938,0.000000,1.502424
LINE647,0.000000,-0.393414,46.864902,3.302368,0.000000,4.478927
LINE648,342.541970,-0.822363,242.237692,3.303607,168.472578,1.242785
LINE649,0.000000,2.134000,0.000000,0.085538,0.000000,4.296377
LINE650,0.000000,2.610863,95.593808,3.291640,0.000000,4.649198
LINE651,0.000000,-0.698602,46.590104,3.303938,0.000000,1.507145
LINE652,0.000000,-0.383563,46.864902,3.302368,0.000000,4.597258
LINE653,342.541970,-0.822363,242.237692,3.303607,168.472578,1.242785
LINE654,0.000000,1.809448,0.000000,1.556128,0.000000,4.195024
LINE655,0.000000,-1.009941,47.801340,3.291663,0.000000,4.629168
LINE656,0.000000,-0.705117,47.792468,3.291617,0.000000,1.663238
LINE657,0.000000,-0.743381,46.590104,3.303938,0.000000,1.510771
LINE658,0.000000,-0.559181,46.864902,3.302368,0.000000,4.594377
LINE659,342.541970,-0.822363,242.237692,3.303607,168.472578,1.242785
LINE660,0.000000,1.968729,0.000000,4.358698,0.000000,1.937063
LINE661,0.000000,0.134317,47.801340,3.291663,0.000000,4.697520
LINE662,0.000000,-0.382870,47.792468,3.291617,0.000000,2.571089
LINE663,0.000000,-0.700309,46.590104,3.303938,0.000000,1.519903
LINE664,0.000000,-0.942863,46.864902,3.302368,0.000000,-1.565063
LINE665,342.541970,-0.822363,242.237692,3.303607,168.472578,1.242785
LINE666,0.000000,1.728934,0.000000,-1.156845,0.000000,3.157632
LINE667,0.000000,1.036668,47.801340,3.291663,0.000000,0.977232
LINE668,0.000000,0.122610,47.792468,3.291617,0.000000,2.324926
LINE669,0.000000,-0.654229,46.590104,3.303938,0.000000,1.526336
LINE670,0.000000,-0.143432,46.864902,3.302368,0.000000,-0.556887
LINE671,146.056506,-0.826346,0.000000,2.989875,0.000000,-1.543535
LINE672,196.487483,-0.819403,242.237692,3.303607,168.472578,1.242785
LINE673,0.000000,1.792819,0.000000,-0.391160,0.000000,1.542829
LINE674,0.000000,-0.650646,47.801340,3.291663,0.000000,-1.277926
LINE675,0.000000,1.504614,47.792468,3.291617,0.000000,4.357086
LINE676,0.000000,-0.639946,46.590104,3.303938,0.000000,1.536056
LINE677,0.000000,-0.446011,46.864902,3.302368,0.000000,-1.540155
LINE678,146.056506,-0.826346,0.000000,2.956824,0.000000,-1.545218
LINE679,196.487483,-0.819403,242.237692,3.303607,168.472578,1.242785
LINE680,0.000000,2.784624,0.000000,3.696518,0.000000,0.164734
LINE681,0.000000,3.230088,47.801340,3.291663,0.000000,1.485699
LINE682,0.000000,-0.644544,46.590104,3.303938,0.000000,1.532570
LINE683,0.000000,-0.786387,46.864902,3.302368,0.000000,-1.511170
LINE684,146.056506,-0.826346,0.000000,3.017125,0.000000,-1.532338
LINE685,196.487483,-0.819403,242.237692,3.303607,168.472578,1.242785
LINE686,0.000000,-0.666768,46.590104,3.303938,0.000000,1.527564
LINE687,0.000000,3.850957,46.864902,3.302368,0.000000,4.648252
LINE688,146.056506,-0.826346,0.000000,2.989327,0.000000,-1.548019
LINE689,0.000000,3.628913,0.000000,2.799781,83.981186,1.243906
LINE690,196.487483,-0.819403,242.237692,3.303607,84.491498,1.241671
LINE691,0.000000,-0.715079,46.590104,3.303938,0.000000,1.520853
LINE692,146.056506,-0.826346,0.000000,2.953029,0.000000,-1.516257
LINE693,0.000000,3.624840,0.000000,2.823618,41.994586,1.243929
LINE694,0.000000,-0.961370,0.000000,3.653087,41.986600,1.243882
LINE695,0.000000,3.215656,47.343797,3.301820,0.000000,1.657923
LINE696,196.487483,-0.819403,194.893989,3.304042,84.491498,1.241671
LINE697,0.000000,-0.835787,46.590104,3.303938,0.000000,1.515977
LINE698,146.056506,-0.826346,0.000000,2.989685,0.000000,-1.519796
LINE699,0.000000,3.570025,0.000000,2.583549,41.994586,1.243929
LINE700,0.000000,2.640358,0.000000,-0.581218,41.986600,1.243882
LINE701,0.000000,2.623554,47.343797,3.301820,0.000000,1.280518
LINE702,196.487483,-0.819403,194.893989,3.304042,84.491498,1.241671
LINE703,0.000000,-0.806103,46.590104,3.303938,0.000000,1.521774
LINE704,146.056506,-0.826346,0.000000,2.890151,0.000000,-1.526015
LINE705,0.000000,3.647437,0.000000,2.802916,41.994586,1.243929
LINE706,196.487483,-0.819403,194.893989,3.304042,84.491498,1.241671
LINE707,0.000000,3.151438,0.000000,0.470350,0.000000,-0.522126
LINE708,0.000000,-0.830682,46.590104,3.303938,0.000000,1.525328
LINE709,146.056506,-0.826346,0.000000,2.927103,0.000000,-1.525048
LINE710,0.000000,3.890744,0.000000,3.100291,41.994586,1.243929
LINE711,98.751880,-0.815763,194.893989,3.304042,84.491498,1.241671
LINE712,97.736918,-0.823081,0.000000,2.705152,0.000000,1.629308
LINE713,0.000000,3.073881,0.000000,0.492310,0.000000,-1.459963
LINE714,0.000000,-0.898473,46.590104,3.303938,0.000000,1.535034
LINE715,146.056506,-0.826346,0.000000,2.927781,0.000000,-1.526046
LINE716,0.000000,3.597697,0.000000,3.312453,41.994586,1.243929
LINE717,98.751880,-0.815763,194.893989,3.304042,84.491498,1.241671
LINE718,97.736918,-0.823081,0.000000,2.724137,0.000000,1.620526
LINE719,0.000000,3.140466,0.000000,0.455210,0.000000,3.885238
LINE720,0.000000,-1.037175,46.590104,3.303938,0.000000,1.536698
LINE721,146.056506,-0.826346,0.000000,2.939746,0.000000,-1.526768
LINE722,0.000000,2.955278,0.000000,2.738697,41.994586,1.243929
LINE723,98.751880,-0.815763,98.328773,3.304217,84.491498,1.241671
LINE724,0.000000,-0.342575,96.565219,3.303863,0.000000,1.525338
LINE725,97.736918,-0.823081,0.000000,2.754164,0.000000,1.605086
LINE726,0.000000,3.258552,0.000000,0.471110,0.000000,3.529564
LINE727,0.000000,-0.557964,46.590104,3.303938,0.000000,1.544171
LINE728,146.056506,-0.826346,0.000000,2.963921,0.000000,-1.523037
LINE729,0.000000,3.289981,0.000000,1.767588,41.994586,1.243929
LINE730,98.751880,-0.815763,98.328773,3.304217,84.491498,1.241671
LINE731,0.000000,-0.340395,96.565219,3.303863,0.000000,1.527448
LINE732,97.736918,-0.823081,0.000000,3.042212,0.000000,1.562697
LINE733,0.000000,3.330711,0.000000,0.487505,0.000000,4.480218
LINE734,0.000000,-0.542778,46.590104,3.303938,0.000000,1.541919
LINE735,146.056506,-0.826346,0.000000,2.919212,0.000000,-1.537496
LINE736,0.000000,3.455185,0.000000,0.477804,41.994586,1.243929
LINE737,98.751880,-0.815763,98.328773,3.304217,84.491498,1.241671
LINE738,0.000000,-0.347990,96.565219,3.303863,0.000000,1.526635
LINE739,97.736918,-0.823081,0.000000,2.877658,0.000000,1.575070
LINE740,0.000000,3.530728,0.000000,0.426719,0.000000,-1.488586
LINE741,0.000000,-0.152347,46.590104,3.303938,0.000000,1.543043
LINE742,146.056506,-0.826346,0.000000,2.864199,0.000000,-1.546805
LINE743,0.000000,3.742715,0.000000,-0.193498,41.994586,1.243929
LINE744,98.751880,-0.815763,98.328773,3.304217,84.491498,1.241671
LINE745,0.000000,3.504644,48.289498,3.303899,0.000000,4.692930
LINE746,0.000000,-0.330257,48.275721,3.303828,0.000000,1.512371
LINE747,97.736918,-0.823081,0.000000,2.966248,0.000000,1.578263
LINE748,0.000000,3.064704,0.000000,0.356464,0.000000,-1.549257
LINE749,0.000000,-0.115177,46.590104,3.303938,0.000000,1.500380
LINE750,146.056506,-0.826346,0.000000,2.805519,0.000000,-1.536587
LINE751,0.000000,3.882496,0.000000,0.339597,41.994586,1.243929
LINE752,98.751880,-0.815763,98.328773,3.304217,0.000000,1.418132
LINE753,0.000000,-0.555152,0.000000,3.582700,84.491498,1.241671
LINE754,0.000000,3.166727,48.289498,3.303899,0.000000,4.693167
LINE755,0.000000,-0.640972,48.275721,3.303828,0.000000,1.460014
LINE756,97.736918,-0.823081,0.000000,2.923956,0.000000,1.580036
LINE757,0.000000,2.760356,0.000000,0.506125,0.000000,-1.492586
LINE758,0.000000,-0.798443,46.590104,3.303938,0.000000,-1.488427
LINE759,146.056506,-0.826346,0.000000,2.791174,0.000000,-1.524912
LINE760,0.000000,-0.197214,0.000000,-0.399623,41.994586,1.243929
LINE761,98.751880,-0.815763,98.328773,3.304217,0.000000,1.450645
LINE762,0.000000,-0.554853,0.000000,3.588549,84.491498,1.241671
LINE763,0.000000,-0.637306,48.275721,3.303828,0.000000,1.515195
LINE764,97.736918,-0.823081,0.000000,3.075236,0.000000,1.551773
LINE765,0.000000,2.516145,0.000000,0.357829,0.000000,4.592686
LINE766,0.000000,0.073355,46.590104,3.303938,0.000000,-1.357199
LINE767,146.056506,-0.826346,0.000000,2.807010,0.000000,-1.535054
LINE768,0.000000,-0.625338,0.000000,-0.872621,41.994586,1.243929
LINE769,98.751880,-0.815763,98.328773,3.304217,0.000000,1.468118
LINE770,0.000000,2.710791,0.000000,3.913359,42.252389,1.241710
LINE771,0.000000,-0.600236,0.000000,3.577195,42.239108,1.241632
LINE772,0.000000,-0.266076,48.275721,3.303828,0.000000,0.365049
LINE773,97.736918,-0.823081,0.000000,3.086133,0.000000,1.540461
LINE774,0.000000,2.795169,0.000000,0.351214,0.000000,4.498008
LINE775,0.000000,3.159832,46.590104,3.303938,0.000000,1.879851
LINE776,146.056506,-0.826346,0.000000,2.814737,0.000000,-1.536003
LINE777,0.000000,0.111900,0.000000,-0.931213,41.994586,1.243929
LINE778,98.751880,-0.815763,98.328773,3.304217,0.000000,1.468438
LINE779,0.000000,0.706614,0.000000,0.298284,42.252389,1.241710
LINE780,0.000000,-0.443982,0.000000,3.806668,42.239108,1.241632
LINE781,0.000000,-0.838906,48.275721,3.303828,0.000000,-1.190388
LINE782,97.736918,-0.823081,0.000000,3.147288,0.000000,1.534508
LINE783,0.000000,2.422500,0.000000,0.541120,0.000000,4.328230
LINE784,0.000000,3.337947,46.590104,3.303938,0.000000,1.617023
LINE785,146.056506,-0.826346,0.000000,2.820692,0.000000,-1.536251
LINE786,98.751880,-0.815763,98.328773,3.304217,0.000000,1.462293
LINE787,0.000000,-0.485016,0.000000,3.496866,42.239108,1.241632
LINE788,0.000000,-0.684582,48.275721,3.303828,0.000000,1.496167
LINE789,97.736918,-0.823081,0.000000,3.106816,0.000000,1.528940
LINE790,0.000000,0.837612,0.000000,0.334035,0.000000,1.882250
LINE791,97.370775,-0.826346,0.000000,2.859651,0.000000,-1.532037
LINE792,48.685731,-0.826345,0.000000,4.152732,0.000000,1.599069
LINE793,98.751880,-0.815763,98.328773,3.304217,0.000000,1.459333
LINE794,0.000000,-0.526063,0.000000,3.882303,42.239108,1.241632
LINE795,0.000000,-0.926212,48.275721,3.303828,0.000000,-0.270452
LINE796,97.736918,-0.823081,0.000000,2.962522,0.000000,1.500220
LINE797,0.000000,4.087412,0.000000,0.181797,0.000000,1.649301
LINE798,97.370775,-0.826346,0.000000,2.940663,0.000000,-1.528935
LINE799,48.685731,-0.826345,0.000000,3.711206,0.000000,1.590689
LINE800,98.751880,-0.815763,0.000000,-0.680566,0.000000,1.575722
LINE801,0.000000,2.382563,98.328773,3.304217,0.000000,-0.998521
LINE802,0.000000,-0.542959,0.000000,3.765764,42.239108,1.241632
LINE803,0.000000,3.367200,48.275721,3.303828,0.000000,4.636138
LINE804,97.736918,-0.823081,0.000000,3.204504,0.000000,1.568371
LINE805,0.000000,2.308834,0.000000,0.217479,0.000000,-1.559418
LINE806,97.370775,-0.826346,0.000000,2.837917,0.000000,-1.504923
LINE807,48.685731,-0.826345,0.000000,3.664186,0.000000,1.575360
LINE808,98.751880,-0.815763,0.000000,-0.496521,0.000000,1.623476
LINE809,0.000000,2.058918,98.328773,3.304217,0.000000,-1.137165
LINE810,0.000000,4.595526,0.000000,1.275639,0.000000,1.671317
LINE811,0.000000,-0.363996,0.000000,4.662722,42.239108,1.241632
LINE812,0.000000,0.616426,48.275721,3.303828,0.000000,1.571391
LINE813,97.736918,-0.823081,0.000000,3.388603,0.000000,4.669202
LINE814,0.000000,0.163401,0.000000,1.867816,0.000000,-1.245117
LINE815,97.370775,-0.826346,0.000000,2.913572,0.000000,-1.527949
LINE816,48.685731,-0.826345,0.000000,3.565342,0.000000,-1.445397
LINE817,98.751880,-0.815763,0.000000,-0.534134,0.000000,1.631989
LINE818,0.000000,1.362105,98.328773,3.304217,0.000000,-1.271491
LINE819,0.000000,0.842130,0.000000,2.642024,0.000000,0.673176
LINE820,0.000000,-0.460136,0.000000,2.264340,42.239108,1.241632
LINE821,97.736918,-0.823081,0.000000,3.408351,0.000000,4.480920
LINE822,0.000000,1.198051,0.000000,-0.576463,0.000000,4.555641
LINE823,97.370775,-0.826346,0.000000,3.094953,0.000000,-1.486398
LINE824,98.751880,-0.815763,0.000000,-0.171634,0.000000,1.713422
LINE825,0.000000,0.488294,98.328773,3.304217,0.000000,-1.350239
LINE826,0.000000,-0.090093,0.000000,-0.090093,0.000000,1.015597
LINE827,0.000000,3.142737,0.000000,3.108595,42.239108,1.241632
LINE828,97.736918,-0.823081,0.000000,3.517186,0.000000,4.551224
LINE829,0.000000,3.425302,0.000000,2.264594,0.000000,4.559797
LINE830,97.370775,-0.826346,0.000000,3.048641,0.000000,-0.943001
LINE831,98.751880,-0.815763,0.000000,-0.123239,0.000000,4.291204
LINE832,0.000000,0.399514,98.328773,3.304217,0.000000,-1.209505
LINE833,0.000000,-0.201681,0.000000,-0.201681,0.000000,2.996186
LINE834,0.000000,3.945708,0.000000,3.225633,42.239108,1.241632
LINE835,97.736918,-0.823081,0.000000,3.484066,0.000000,1.828464
LINE836,97.370775,-0.826346,0.000000,2.993811,0.000000,-0.866774
LINE837,98.751880,-0.815763,0.000000,0.181726,0.000000,4.631549
LINE838,0.000000,-0.183814,98.328773,3.304217,0.000000,-0.955086
LINE839,0.000000,2.939912,0.000000,2.939912,0.000000,-0.145406
LINE840,97.736918,-0.823081,0.000000,3.489166,0.000000,1.720247
LINE841,97.370775,-0.826346,0.000000,3.080139,0.000000,1.547051
LINE842,98.751880,-0.815763,0.000000,0.316147,0.000000,4.640446
LINE843,0.000000,0.059454,98.328773,3.304217,0.000000,4.568539
LINE844,0.000000,3.732292,0.000000,-0.335091,0.000000,0.888096
LINE845,0.000000,2.939912,0.000000,-0.141989,0.000000,2.851014
LINE846,97.736918,-0.823081,0.000000,3.445502,0.000000,1.795319
LINE847,97.370775,-0.826346,0.000000,3.107696,0.000000,1.520021
LINE848,98.751880,-0.815763,0.000000,0.301521,0.000000,4.546823
LINE849,0.000000,0.015623,98.328773,3.304217,0.000000,4.559144
LINE850,0.000000,3.870500,0.000000,-0.361572,0.000000,1.102088
LINE851,0.000000,0.000000,0.000000,0.000000,0.000000,0.000000
LINE852,97.736918,-0.823081,0.000000,3.126939,0.000000,4.659723
LINE853,97.370775,-0.826346,0.000000,3.822290,0.000000,1.536025
LINE854,98.751880,-0.815763,0.000000,0.147224,0.000000,4.683210
LINE855,0.000000,0.011265,98.328773,3.304217,0.000000,4.648777
LINE856,0.000000,3.853974,0.000000,-0.311629,0.000000,1.304897
LINE857,0.000000,3.953828,0.000000,0.011610,0.000000,2.259428
LINE858,97.736918,-0.823081,0.000000,3.308716,0.000000,1.065812
LINE859,48.652983,-0.826511,0.000000,2.928561,0.000000,1.127497
LINE860,48.717793,-0.826182,0.000000,2.859690,0.000000,1.376826
LINE861,98.751880,-0.815763,0.000000,0.124587,0.000000,4.681708
LINE862,0.000000,0.081371,98.328773,3.304217,0.000000,4.632718
LINE863,0.000000,4.290117,0.000000,-0.457127,0.000000,1.265430
LINE864,0.000000,4.597556,0.000000,1.368318,0.000000,2.996186
LINE865,97.736918,-0.823081,0.000000,3.153646,0.000000,1.146985
LINE866,98.751880,-0.815763,0.000000,0.153440,0.000000,4.684725
LINE867,0.000000,-0.067519,98.328773,3.304217,0.000000,3.074074
LINE868,0.000000,4.036990,0.000000,-0.526003,0.000000,1.467585
LINE869,0.000000,-0.201681,0.000000,-0.201681,0.000000,2.996186
LINE870,97.736918,-0.823081,0.000000,3.008049,0.000000,4.643497
LINE871,98.751880,-0.815763,0.000000,0.125807,0.000000,4.689065
LINE872,0.000000,-0.312497,49.178405,3.304289,0.000000,-0.067519
LINE873,0.000000,3.074074,49.150368,3.304144,0.000000,1.581244
LINE874,0.000000,-0.170578,0.000000,4.601808,0.000000,1.411636
LINE875,0.000000,4.630676,0.000000,1.379532,0.000000,4.595550
LINE876,97.736918,-0.823081,0.000000,1.992967,0.000000,4.616972
LINE877,98.751880,-0.815763,0.000000,0.136657,0.000000,4.682507
LINE878,0.000000,-1.050312,49.178405,3.304289,0.000000,1.503278
LINE879,0.000000,0.000000,49.150368,3.304144,0.000000,1.518901
LINE880,0.000000,0.000000,0.000000,0.000000,0.000000,0.000000
LINE881,0.000000,-0.201681,0.000000,-0.201681,0.000000,2.996186
LINE882,97.736918,-0.823081,0.000000,2.660766,0.000000,4.681400
LINE883,98.751880,-0.815763,0.000000,0.070585,0.000000,4.619227
LINE884,0.000000,4.644870,49.178405,3.304289,0.000000,3.074074
LINE885,0.000000,0.000000,49.150368,3.304144,0.000000,0.000000
LINE886,97.736918,-0.823081,0.000000,3.259784,0.000000,1.326973
LINE887,49.380539,-0.815701,0.000000,0.061719,0.000000,1.598654
LINE888,49.371341,-0.815826,0.000000,3.362465,0.000000,2.959345
LINE889,0.000000,-0.531166,49.178405,3.304289,0.000000,-1.364147
LINE890,97.736918,-0.823081,0.000000,3.013104,0.000000,1.659468
LINE891,49.380539,-0.815701,0.000000,0.081387,0.000000,1.551040
LINE892,49.371341,-0.815826,0.000000,3.796065,0.000000,4.375712
LINE893,0.000000,0.000000,49.178405,3.304289,0.000000,-1.483318
LINE894,48.913450,-0.822854,0.000000,2.937843,0.000000,4.455023
LINE895,48.823471,-0.823308,0.000000,2.786299,0.000000,1.692054
LINE896,49.380539,-0.815701,0.000000,0.102794,0.000000,-0.977639
LINE897,49.371341,-0.815826,0.000000,4.095826,0.000000,2.328620
LINE898,0.000000,0.000000,49.178405,3.304289,0.000000,0.000000
LINE899,48.913450,-0.822854,0.000000,-0.873969,0.000000,1.637744
LINE900,49.380539,-0.815701,0.000000,-0.012043,0.000000,1.505834
LINE901,49.380539,-0.815701,0.000000,0.370323,0.000000,-0.140467
LINE902,49.380539,-0.815701,0.000000,4.624838,0.000000,1.565634
LINE903,49.380539,-0.815701,0.000000,3.525232,0.000000,1.546818
LINE904,49.380539,-0.815701,0.000000,3.414976,0.000000,1.549759
LINE905,49.380539,-0.815701,0.000000,2.247737,0.000000,4.524609
